LAMMPS (17 Jan 2018)
#
# Set up system
#
boundary p p p
units metal
atom_style atomic

read_data data.lammps.gz
  orthogonal box = (0 0 0) to (64 64 64)
  reading atoms ...
  4001 atoms
  reading velocities ...
  4001 velocities
velocity all create 5000 4384387

#
# Interaction
#
pair_style atomistica Kumagai
pair_coeff * * Si

#
# Screen output
#
thermo 100
thermo_style custom step ke pe etotal temp fnorm press vol
thermo_modify format float "%14.8f" norm no flush yes

#
# Langevin molecular dynamics
#
timestep 0.0001
fix nve all nve
run 1000
  update every 1 steps, delay 10 steps, check yes
Step KinEng PotEng TotEng Temp Fnorm Press Volume
0  2585.20290000 -11982.05397051 -9396.85107051  5000.00000000   204.58841097 -5302.83166434 262144.00000000
Averages over the last 6 of 11 rows, steps 500 to 1000:
KinEng PotEng TotEng Temp Fnorm Press Volume
2554.09 -11950.9 -9396.85 4939.83 207.372 -3993.58 262144
Loop time of 12.3819 on 1 procs for 1000 steps with 4001 atoms
